data/chapter15/cases/d2asbegp_gfma_p4pu_1ibr.m
% Two Area Test Case
% sub transient generators with static exciters, turbine/governors
% 100% constant current active loads
% load modulation
% with power system stabilizers

disp('Two-area test case with subtransient generator models')
disp('static exciters')
disp('turbine/governors')
disp('power system stabilizers')
% bus data format
% bus:
% col1 number
% col2 voltage magnitude(pu)
% col3 voltage angle(degree)
% col4 p_gen(pu)
% col5 q_gen(pu),
% col6 p_load(pu)
% col7 q_load(pu)
% col8 G shunt(pu)
% col9 B shunt(pu)
% col10 bus_type
%       bus_type - 1, swing bus
%                - 2, generator bus (PV bus)
%                - 3, load bus (PQ bus)
% col11 q_gen_max(pu)
% col12 q_gen_min(pu)
% col13 v_rated (kV)
% col14 v_max  pu
% col15 v_min  pu

bus = [...
    1  1.01      0.0     7.00   1.274  0.00  0.00  0.00  0.00 2  5.0  -5.0   22.0  1.1   0.9;
    2  1.01    -10.569   7.00   1.948  0.00  0.00  0.00  0.00 1  5.0  -5.0   22.0  1.1   0.9;
    3  0.9791  -25.622   0.00   0.00   0.00  0.00  0.00  3.10 3  0.0   0.0  230.0  1.5   0.5;
    4  0.9984  -28.388   0.00   0.00   9.76  1.00  0.00  0.00 3  0.0   0.0  115.0  1.05  0.95;
   10  0.9962   -6.841   0.00   0.00   0.00  0.00  0.00  0.00 3  0.0   0.0  230.0  1.5   0.5;
   11  1.01    -26.570   7.00   1.143  0.00  0.00  0.00  0.00 2  5.0  -5.0   22.0  1.1   0.9;
   12  1.01    -36.668   7.00   1.784  0.00  0.00  0.00  0.00 2  5.0  -5.0   22.0  1.1   0.9;
   13  0.9863  -51.572   0.00   0.00   0.00  0.00  0.00  5.00 3  0.0   0.0  230.0  1.5   0.5;
   14  1.0062  -56.485   0.00   0.00   17.59 1.00  0.00  0.00 3  0.0   0.0  115.0  1.05  0.95;
   20  0.9847  -17.301   0.00   0.00   0.00  0.00  0.00  0.00 3  0.0   0.0  230.0  1.5   0.5;
  101  1.0003  -38.886   0.00   0.00   0.00  0.00  0.00  1.27 3  0.0   0.0  230.0  1.5   0.5;
  110  0.9980  -33.226   0.00   0.00   0.00  0.00  0.00  0.00 3  0.0   0.0  230.0  1.5   0.5;
  120  0.9877  -43.387   0.00   0.00   0.00  0.00  0.00  0.00 3  0.0   0.0  230.0  1.5   0.5];

% line data format
% line:
%      col1     from bus
%      col2     to bus
%      col3     resistance(pu)
%      col4     reactance(pu)
%      col5     line charging(pu)
%      col6     tap ratio
%      col7     tap phase
%      col8     tapmax
%      col9     tapmin
%      col10    tapsize

line = [...
    1   10  0.0     0.0167   0.0     1.0     0  0    0    0;
    2   20  0.0     0.0167   0.0     1.0     0  0    0    0;
    3    4  0.0     0.005    0.0     0.975   0  1.2  0.8  0.00625;
    3   20  0.001   0.0100   0.0175  1.0     0  0    0    0;
    3  101  0.011   0.110    0.1925  1.0     0  0    0    0;
    3  101  0.011   0.110    0.1925  1.0     0  0    0    0;
   10   20  0.0025  0.025    0.0437  1.0     0  0    0    0;
   11  110  0.0     0.0167   0.0     1.0     0  0    0    0;
   12  120  0.0     0.0167   0.0     1.0     0  0    0    0;
   13  101  0.011   0.11     0.1925  1.0     0  0    0    0;
   13  101  0.011   0.11     0.1925  1.0     0  0    0    0;
   13   14  0.0     0.005    0.0     0.9688  0  1.2  0.8  0.00625;
   13  120  0.001   0.01     0.0175  1.0     0  0    0    0;
  110  120  0.0025  0.025    0.0437  1.0     0  0    0    0];

% Machine data format
%       1. machine number,
%       2. bus number,
%       3. base mva,
%       4. leakage reactance x_l(pu),
%       5. resistance r_a(pu),
%       6. d-axis sychronous reactance x_d(pu),
%       7. d-axis transient reactance x'_d(pu),
%       8. d-axis subtransient reactance x"_d(pu),
%       9. d-axis open-circuit time constant T'_do(sec),
%      10. d-axis open-circuit subtransient time constant
%                T"_do(sec),
%      11. q-axis sychronous reactance x_q(pu),
%      12. q-axis transient reactance x'_q(pu),
%      13. q-axis subtransient reactance x"_q(pu),
%      14. q-axis open-circuit time constant T'_qo(sec),
%      15. q-axis open circuit subtransient time constant
%                T"_qo(sec),
%      16. inertia constant H(sec),
%      17. damping coefficient d_o(pu),
%      18. dampling coefficient d_1(pu),
%      19. bus number
%      20. saturation curve value, s(1.0)
%      21. saturation curve value, s(1.2)
%
% note: all the following machines use the sub-transient model, mac_sub

mac_con = [...
    1  1  1250  0.200  0.00 1.8  0.30  0.25 8.00  0.03 ...
                            1.7  0.55  0.24 0.4   0.05 ...
                            6.5  0  0  1  0.0654  0.5743;
    2  2  1250  0.200  0.00 1.8  0.30  0.25 8.00  0.03 ...
                            1.7  0.55  0.25 0.4   0.05 ...
                            6.5  0  0  2  0.0654  0.5743;
    3 11  1250  0.200  0.00 1.8  0.30  0.25 8.00  0.03 ...
                            1.7  0.55  0.24 0.4   0.05 ...
                            6.5  0  0 11  0.0654  0.5743;
    4 12  1250  0.200  0.00 1.8  0.30  0.25 8.00  0.03 ...
                            1.7  0.55  0.25 0.4   0.05 ...
                            6.5  0  0 12  0.0654  0.5743;
];

mac_con(1,:) = [];

% exc_con matrix format
% column  data
%      1  exciter type (=3 for exc_st3, IEEE type ST3)
%      2  machine number
%      3  transducer filter time constant (T_R - sec)
%      4  voltage regulator gain (K_A)
%      5  voltage regulator time constant (T_A - sec)
%      6  transient gain reduction time constnat (T_B - sec) -- denominator
%      7  transient gain reduction time constnat (T_C - sec) -- numerator
%      8  max voltage regulator output (V_Rmax - pu)
%      9  min voltage regulator output (V_Rmin - pu)
%     10  max internal signal (VImax - pu)
%     11  min internal signal (VImin - pu)
%     12  first state regulator gain (KJ)
%     13  potential circuit gain coef (KP)
%     14  potential circuit phase angle (qP - degrees)
%     15  current circuit gain coef (KI)
%     16  potential source reactance (XL - pu)
%     17  rectifier loading factor (KC)
%     18  max field voltage (Efdmax - pu)
%     19  inner loop feedback constant (KG)
%     20  max innerloop voltage feedback (VGmax - pu)
%
% note: simple exciter model, type 0; there are three exciter models

exc_con = [...
    0 1 0.02 200.0  0.05  0    0    5.0 -5.0 ...
        0    0      0     0    0    0    0    0    0    0    0;
    0 2 0.02 200.0  0.05  0    0    5.0 -5.0 ...
        0    0      0     0    0    0    0    0    0    0    0;
    0 3 0.02 200.0  0.05  0    0    5.0 -5.0 ...
        0    0      0     0    0    0    0    0    0    0    0;
    0 4 0.02 200.0  0.05  0    0    5.0 -5.0 ...
        0    0      0     0    0    0    0    0    0    0    0;
];

exc_con(1,:) = [];

% power system stabilizer model
%       col1    type 1 speed input; 2 power input
%       col2    generator number
%       col3    pssgain*washout time constant
%       col4    washout time constant
%       col5    first lead time constant
%       col6    first lag time constant
%       col7    second lead time constant
%       col8    second lag time constant
%       col9    maximum output limit
%       col10   minimum output limit

pss_con = [...
    1  1  100  10  0.05  0.01  0.05  0.01  0.2 -0.05;
    1  2  100  10  0.05  0.01  0.05  0.01  0.2 -0.05;
    1  3  100  10  0.05  0.01  0.05  0.01  0.2 -0.05;
    1  4  100  10  0.05  0.01  0.05  0.01  0.2 -0.05;
];

pss_con(1,:) = [];

% governor model
% tg_con matrix format
%column        data                     unit
%  1    turbine model number (=1)
%  2    machine number
%  3    speed set point   wf            pu
%  4    steady state gain 1/R           pu
%  5    maximum power order  Tmax       pu on generator base
%  6    servo time constant   Ts        sec
%  7    governor time constant  Tc      sec
%  8    transient gain time constant T3 sec
%  9    HP section time constant   T4   sec
% 10    reheater time constant    T5    sec

my_Rg = 0.05;     % droop constant (5 pct)
my_Kg = 1/my_Rg;  % equivalent droop gain

tg_con = [...
    1  1  1  my_Kg  1.0  0.1  0.5  0.0  1.25  5.0;
    1  2  1  my_Kg  1.0  0.1  0.5  0.0  1.25  5.0;
    1  3  1  my_Kg  1.0  0.1  0.5  0.0  1.25  5.0;
    1  4  1  my_Kg  1.0  0.1  0.5  0.0  1.25  5.0;
];

tg_con(1,:) = [];

% gfma_con matrix format
%    col    data                                              units
%     1     gfma controller number                            integer
%     2     bus number                                        integer
%     3     P-f droop gain, mp                                pu
%     4     active power upper limit, Pmax                    pu
%     5     active power lower limit, Pmin                    pu
%     6     active overload proportional gain, kppmax         pu
%     7     active overload integral gain, kipmax             pu
%     8     active overload windup flag (1 = anti-windup)     binary
%     9     Q-V droop gain, mq                                pu
%    10     active power upper limit, Qmax                    pu
%    11     active power lower limit, Qmin                    pu
%    12     voltage controller proportional gain, kpv         pu
%    13     voltage controller integral gain, kiv             pu
%    14     commanded voltage magnitude time constant         s
%    15     reactive overload proportional gain, kpqmax       pu
%    16     reactive overload integral gain, kiqmax           pu
%    17     reactive overload windup flag (1 = anti-windup)   binary
%    18     voltage control loop upper limit, Emax            pu
%    19     voltage control loop upper limit, Emin            pu
%    20     inverter maximum output current                   pu
%    21     active power transducer time constant             s
%    22     reactive power transducer time constant           s
%    23     voltage magnitude transducer time constant        s
%    24     Q-V initialization flag, qvflag (note 1)          binary
%    25     voltage control flag, vflag (note 2)              binary
%    26     current limiting state behavior flag (note 3)     binary
%
% note 1: when gfma_con(,24) = 0, the reactive power setpoint is
%         initialized based on the power flow solution and Vset
%         is calculated accordingly; however, when
%         gfma_con(,24) = 1, the reactive power setpoint is set
%         to 0.
%
% note 2: when gfma_con(,25) = 0, the PI section of the voltage
%         control loop is bypassed; however, when
%         gfma_con(,25) = 1, the commanded voltage magnitude
%         is taken from the output of the PI section (after
%         limiting).
%
% note 3: when gfma_con(,26) = 0, the control states are not
%         updated when the current limit is reached; however,
%         when gfma_con(,26) = 1, the control states
%         (gfma1, gfma4, gfma5) are updated to reflect the
%         modified commanded voltage magnitude and angle.

%          num bus  mp    Pmax Pmin kppmax kipmax pawf mq   Qmax Qmin
tmp_gc1 = [ 1    1  0.05  1.0  0.0  0.01   0.1    1    0.05  1.0 -1.0;
            2    2  0.05  1.0  0.0  0.01   0.1    1    0.05  1.0 -1.0;
            3   11  0.05  1.0  0.0  0.01   0.1    1    0.05  1.0 -1.0;
            4   12  0.05  1.0  0.0  0.01   0.1    1    0.05  1.0 -1.0];

%          kpv kiv  T_E kpqmax kiqmax qawf Emax Emin Imax Tpf  Tqf  Tvf  qvflag vflag sflag
tmp_gc2 = [0.0 40.0 0.0 3.0    20.0   1    1.15 0.0  1.2  0.02 0.02 0.02 0      1     0;
           0.0 40.0 0.0 3.0    20.0   1    1.15 0.0  1.2  0.02 0.02 0.02 0      1     0;
           0.0 40.0 0.0 3.0    20.0   1    1.15 0.0  1.2  0.02 0.02 0.02 0      1     0;
           0.0 40.0 0.0 3.0    20.0   1    1.15 0.0  1.2  0.02 0.02 0.02 0      1     0];

gfma_con = [tmp_gc1, tmp_gc2];

gfma_con([2,3,4],:) = [];

% ivm_con format
%  1  ivm generator number (*not* mac number)         integer
%  2  bus number                                      integer
%  3  ivm controller type                             integer
%         0 = user-defined; 1 = gfma                  --
%  4  ivm generator mva base                          MVA
%  5  inverter coupling resistance (typ. zero)        pu
%  6  inverter coupling reactance                     pu
%  7  ivm commanded angle time constant, Td           sec
%  8  ivm commanded voltage mag. time constant, Tv    sec
%  9  virtual inertia time constant                   sec

%          num bus  type mva   rsrc  xsrc  Td   Tv   H
ivm_con = [1     1  1    1250  0.02  0.20  0.0  0.0  0.0;
           2     2  1    1250  0.02  0.20  0.0  0.0  0.0;
           3    11  1    1250  0.02  0.20  0.0  0.0  0.0;
           4    12  1    1250  0.02  0.20  0.0  0.0  0.0];

ivm_con([2,3,4],:) = [];

clear('tmp_gc1','tmp_gc2');
clear('my_Rg','my_Kg');

% induction motor data
% 1. Motor Number
% 2. Bus Number
% 3. Motor MVA Base
% 4. rs pu
% 5. xs pu - stator leakage reactance
% 6. Xm pu - magnetizing reactance
% 7. rr pu
% 8. xr pu - rotor leakage reactance
% 9. H  s  - motor plus load inertia constant
% 10. rr1 pu - second cage resistance
% 11. xr1 pu - intercage reactance
% 12. dbf    - deepbar factor
% 13. isat pu - saturation current
% 15. fraction of bus power drawn by motor ( if zero motor statrts at t=0)

ind_con = [];

% Motor Load Data
% format for motor load data - mld_con
% 1 motor number
% 2 bus number
% 3 stiction load pu on motor base (f1)
% 4 stiction load coefficient (i1)
% 5 external load  pu on motor base(f2)
% 6 external load coefficient (i2)
%
% load has the form
% tload = f1*slip^i1 + f2*(1-slip)^i2

mld_con = [];

%       col1    bus number
%       col2    proportion of constant active power load
%       col3    proportion of constant reactive power load
%       col4    proportion of constant active current load
%       col5    proportion of constant reactive current load

load_con = [...
    4  0  0  1.0  0;
   14  0  0  1.0  0;
];
disp('100% constant current active load');

%disp('load modulation')
%active and reactive load modulation enabled
%       col1    load number
%       col2    bus number
%       col3    MVA rating
%       col4    maximum output limit pu
%       col4    minimum output limit pu
%       col6    Time constant

lmod_con = [...
    1   4  100  1 -1  1  0.05;
    2  14  100  1 -1  1  0.05;
];
%lmod_con = [];

rlmod_con = [...
    1   4  100  1 -1  1  0.05;
    2  14  100  1 -1  1  0.05;
];
%rlmod_con = [];

%Switching file defines the simulation control
% row 1 col1  simulation start time (s) (cols 2 to 6 zeros)
%       col7  initial time step (s)
% row 2 col1  fault application time (s)
%       col2  bus number at which fault is applied
%       col3  bus number defining far end of faulted line
%       col4  zero sequence impedance in pu on system base
%       col5  negative sequence impedance in pu on system base
%       col6  type of fault  - 0 three phase
%                            - 1 line to ground
%                            - 2 line-to-line to ground
%                            - 3 line-to-line
%                            - 4 loss of line with no fault
%                            - 5 loss of load at bus
%                            - 6 no action
%       col7  time step for fault period (s)
% row 3 col1  near end fault clearing time (s) (cols 2 to 6 zeros)
%       col7  time step for second part of fault (s)
% row 4 col1  far end fault clearing time (s) (cols 2 to 6 zeros)
%       col7  time step for fault cleared simulation (s)
% row 5 col1  time to change step length (s)
%       col7  time step (s)
%
% row n col1 finishing time (s)  (n indicates that intermediate rows may be inserted)

my_Ts = 1/(8*60);
sw_con = [...
    0     0    0    0    0    0    my_Ts;  % sets intitial time step
    1.00  3    101  0    0    6    my_Ts;  % do nothing
    1.05  0    0    0    0    0    my_Ts;  % clear near end
    1.10  0    0    0    0    0    my_Ts;  % clear remote end
    1.50  0    0    0    0    0    my_Ts;  % increase time step if desired
   20.00  0    0    0    0    0    my_Ts]; % end simulation

%ibus_con = [0 1 1 1];% sets generators 2, 3 and 4 to be infinite buses
%                       behind source impedance in small signal stability model

% eof
